<?xml version="1.0" encoding="UTF-8"?>

<!-- generated on 2025-03-17 21:13:13 by Eclipse SUMO netconvert Version 1.22.0
<netconvertConfiguration xmlns:xsi="http://www.w3.org/2001/XMLSchema-instance" xsi:noNamespaceSchemaLocation="http://sumo.dlr.de/xsd/netconvertConfiguration.xsd">

    <input>
        <node-files value="network.nod.xml"/>
        <edge-files value="network.edg.xml"/>
        <connection-files value="network.con.xml"/>
    </input>

    <output>
        <output-file value="network.net.xml"/>
    </output>

</netconvertConfiguration>
-->

<net version="1.20" junctionCornerDetail="5" limitTurnSpeed="5.50" xmlns:xsi="http://www.w3.org/2001/XMLSchema-instance" xsi:noNamespaceSchemaLocation="http://sumo.dlr.de/xsd/net_file.xsd">

    <location netOffset="0.00,0.00" convBoundary="0.00,0.00,200.00,200.00" origBoundary="0.00,0.00,200.00,200.00" projParameter="!"/>

    <edge id=":n1_0" function="internal">
        <lane id=":n1_0_0" index="0" speed="8.94" length="17.99" shape="-4.80,4.00 -3.97,0.15 -1.47,-2.60 2.70,-4.25 8.53,-4.80"/>
        <lane id=":n1_0_1" index="1" speed="7.65" length="12.89" shape="-1.60,4.00 -0.97,1.55 0.93,-0.20 4.10,-1.25 8.53,-1.60"/>
    </edge>
    <edge id=":n1_2" function="internal">
        <lane id=":n1_2_0" index="0" speed="5.97" length="11.90" shape="-1.60,4.00 -1.11,1.05 0.36,0.06 2.80,1.03 6.22,3.96"/>
    </edge>
    <edge id=":n2_0" function="internal">
        <lane id=":n2_0_0" index="0" speed="3.65" length="4.67" shape="198.40,1.50 199.20,0.30 200.00,-0.10 200.80,0.30 201.60,1.50"/>
    </edge>
    <edge id=":n2_1" function="internal">
        <lane id=":n2_1_0" index="0" speed="7.64" length="12.84" shape="195.30,-4.80 199.46,-4.41 202.43,-3.23 204.21,-1.26 204.80,1.50"/>
        <lane id=":n2_1_1" index="1" speed="6.08" length="7.76" shape="195.30,-1.60 198.06,-1.41 200.03,-0.83 201.21,0.14 201.60,1.50"/>
    </edge>
    <edge id=":n3_0" function="internal">
        <lane id=":n3_0_0" index="0" speed="9.58" length="20.80" shape="204.80,188.27 204.25,195.50 202.60,200.67 199.85,203.77 196.00,204.80"/>
        <lane id=":n3_0_1" index="1" speed="8.41" length="15.77" shape="201.60,188.27 201.25,194.10 200.20,198.27 198.45,200.77 196.00,201.60"/>
    </edge>
    <edge id=":n3_2" function="internal">
        <lane id=":n3_2_0" index="0" speed="3.65" length="1.44" shape="201.60,188.27 200.80,189.47"/>
    </edge>
    <edge id=":n3_4" function="internal">
        <lane id=":n3_4_0" index="0" speed="3.65" length="3.23" shape="200.80,189.47 200.00,189.87 199.20,189.47 198.40,188.27"/>
    </edge>
    <edge id=":n3_3" function="internal">
        <lane id=":n3_3_0" index="0" speed="5.47" length="9.74" shape="192.84,190.58 195.27,192.52 197.01,192.78 198.05,191.37 198.40,188.27"/>
    </edge>
    <edge id=":n4_0" function="internal">
        <lane id=":n4_0_0" index="0" speed="6.08" length="7.74" shape="0.00,204.80 -2.10,204.50 -3.60,203.60 -4.50,202.10 -4.80,200.00"/>
        <lane id=":n4_0_1" index="1" speed="3.90" length="2.58" shape="0.00,201.60 -0.70,201.50 -1.20,201.20 -1.50,200.70 -1.60,200.00"/>
    </edge>

    <edge id="e1" from="n1" to="n2" priority="-1">
        <lane id="e1_0" index="0" speed="50.00" length="186.77" shape="8.53,-4.80 195.30,-4.80"/>
        <lane id="e1_1" index="1" speed="50.00" length="186.77" shape="8.53,-1.60 195.30,-1.60"/>
    </edge>
    <edge id="e2" from="n2" to="n3" priority="-1">
        <lane id="e2_0" index="0" speed="50.00" length="186.77" shape="204.80,1.50 204.80,188.27"/>
        <lane id="e2_1" index="1" speed="50.00" length="186.77" shape="201.60,1.50 201.60,188.27"/>
    </edge>
    <edge id="e3" from="n3" to="n4" priority="-1">
        <lane id="e3_0" index="0" speed="50.00" length="196.00" shape="196.00,204.80 0.00,204.80"/>
        <lane id="e3_1" index="1" speed="50.00" length="196.00" shape="196.00,201.60 0.00,201.60"/>
    </edge>
    <edge id="e4" from="n4" to="n1" priority="-1">
        <lane id="e4_0" index="0" speed="50.00" length="196.00" shape="-4.80,200.00 -4.80,4.00"/>
        <lane id="e4_1" index="1" speed="50.00" length="196.00" shape="-1.60,200.00 -1.60,4.00"/>
    </edge>
    <edge id="e5" from="n1" to="n3" priority="-1">
        <lane id="e5_0" index="0" speed="40.00" length="263.92" shape="6.22,3.96 192.84,190.58"/>
    </edge>
    <edge id="e6" from="n3" to="n2" priority="-1">
        <lane id="e6_0" index="0" speed="40.00" length="186.77" shape="198.40,188.27 198.40,1.50"/>
    </edge>

    <tlLogic id="n1" type="static" programID="0" offset="0">
        <phase duration="75" state="GGG"/>
        <phase duration="10" state="yyy"/>
        <phase duration="5"  state="rrr"/>
    </tlLogic>
    <tlLogic id="n3" type="static" programID="0" offset="0">
        <phase duration="35" state="GGgG"/>
        <phase duration="10" state="GGyG"/>
        <phase duration="45" state="GGrG"/>
    </tlLogic>

    <junction id="n1" type="traffic_light" x="0.00" y="0.00" incLanes="e4_0 e4_1" intLanes=":n1_0_0 :n1_0_1 :n1_2_0" shape="-6.40,4.00 0.00,4.00 0.57,2.34 1.27,2.27 2.26,2.71 3.54,3.65 5.09,5.09 7.35,2.83 6.23,1.26 6.23,0.71 6.62,0.31 7.38,0.08 8.53,0.00 8.53,-6.40 3.96,-6.11 0.23,-5.24 -2.67,-3.80 -4.74,-1.78 -5.99,0.82">
        <request index="0" response="000" foes="000" cont="0"/>
        <request index="1" response="000" foes="000" cont="0"/>
        <request index="2" response="000" foes="000" cont="0"/>
    </junction>
    <junction id="n2" type="priority" x="200.00" y="0.00" incLanes="e6_0 e1_0 e1_1" intLanes=":n2_0_0 :n2_1_0 :n2_1_1" shape="196.80,1.50 206.40,1.50 206.09,-0.91 205.17,-2.89 203.62,-4.43 201.47,-5.52 198.69,-6.18 195.30,-6.40 195.30,0.00 196.13,0.17 196.43,0.37 196.63,0.67 196.76,1.04">
        <request index="0" response="110" foes="110" cont="0"/>
        <request index="1" response="000" foes="001" cont="0"/>
        <request index="2" response="000" foes="001" cont="0"/>
    </junction>
    <junction id="n3" type="traffic_light" x="200.00" y="200.00" incLanes="e2_0 e2_1 e5_0" intLanes=":n3_0_0 :n3_0_1 :n3_4_0 :n3_3_0" shape="206.40,188.27 196.80,188.27 196.49,190.18 196.09,190.57 195.54,190.57 194.84,190.20 193.97,189.45 191.71,191.71 194.13,194.24 195.87,196.32 196.93,197.93 197.30,199.08 196.99,199.77 196.00,200.00 196.00,206.40 199.18,205.90 201.78,204.39 203.80,201.87 205.24,198.34 206.11,193.81">
        <request index="0" response="0000" foes="0000" cont="0"/>
        <request index="1" response="0000" foes="0000" cont="0"/>
        <request index="2" response="1000" foes="1000" cont="1"/>
        <request index="3" response="0000" foes="0100" cont="0"/>
    </junction>
    <junction id="n4" type="priority" x="0.00" y="200.00" incLanes="e3_0 e3_1" intLanes=":n4_0_0 :n4_0_1" shape="0.00,206.40 0.00,200.00 -6.40,200.00 -5.69,203.56 -4.80,204.80 -3.56,205.69 -1.96,206.22">
        <request index="0" response="00" foes="00" cont="0"/>
        <request index="1" response="00" foes="00" cont="0"/>
    </junction>

    <junction id=":n3_4_0" type="internal" x="200.80" y="189.47" incLanes=":n3_2_0 e5_0" intLanes=":n3_3_0"/>

    <connection from="e1" to="e2" fromLane="0" toLane="0" via=":n2_1_0" dir="l" state="M"/>
    <connection from="e1" to="e2" fromLane="1" toLane="1" via=":n2_1_1" dir="l" state="M"/>
    <connection from="e2" to="e3" fromLane="0" toLane="0" via=":n3_0_0" tl="n3" linkIndex="0" dir="l" state="O"/>
    <connection from="e2" to="e3" fromLane="1" toLane="1" via=":n3_0_1" tl="n3" linkIndex="1" dir="l" state="O"/>
    <connection from="e2" to="e6" fromLane="1" toLane="0" via=":n3_2_0" tl="n3" linkIndex="2" dir="t" state="o"/>
    <connection from="e3" to="e4" fromLane="0" toLane="0" via=":n4_0_0" dir="l" state="M"/>
    <connection from="e3" to="e4" fromLane="1" toLane="1" via=":n4_0_1" dir="l" state="M"/>
    <connection from="e4" to="e1" fromLane="0" toLane="0" via=":n1_0_0" tl="n1" linkIndex="0" dir="L" state="O"/>
    <connection from="e4" to="e1" fromLane="1" toLane="1" via=":n1_0_1" tl="n1" linkIndex="1" dir="L" state="O"/>
    <connection from="e4" to="e5" fromLane="1" toLane="0" via=":n1_2_0" tl="n1" linkIndex="2" dir="l" state="O"/>
    <connection from="e5" to="e6" fromLane="0" toLane="0" via=":n3_3_0" tl="n3" linkIndex="3" dir="r" state="O"/>
    <connection from="e6" to="e2" fromLane="0" toLane="1" via=":n2_0_0" dir="t" state="m"/>

    <connection from=":n1_0" to="e1" fromLane="0" toLane="0" dir="L" state="M"/>
    <connection from=":n1_0" to="e1" fromLane="1" toLane="1" dir="L" state="M"/>
    <connection from=":n1_2" to="e5" fromLane="0" toLane="0" dir="l" state="M"/>
    <connection from=":n2_0" to="e2" fromLane="0" toLane="1" dir="t" state="M"/>
    <connection from=":n2_1" to="e2" fromLane="0" toLane="0" dir="l" state="M"/>
    <connection from=":n2_1" to="e2" fromLane="1" toLane="1" dir="l" state="M"/>
    <connection from=":n3_0" to="e3" fromLane="0" toLane="0" dir="l" state="M"/>
    <connection from=":n3_0" to="e3" fromLane="1" toLane="1" dir="l" state="M"/>
    <connection from=":n3_2" to="e6" fromLane="0" toLane="0" via=":n3_4_0" dir="t" state="m"/>
    <connection from=":n3_4" to="e6" fromLane="0" toLane="0" dir="t" state="M"/>
    <connection from=":n3_3" to="e6" fromLane="0" toLane="0" dir="r" state="M"/>
    <connection from=":n4_0" to="e4" fromLane="0" toLane="0" dir="l" state="M"/>
    <connection from=":n4_0" to="e4" fromLane="1" toLane="1" dir="l" state="M"/>

</net>
