<edges>
    <edge id="e1" from="n1" to="n2" numLanes="2" speed="50"/>
    <edge id="e2" from="n2" to="n3" numLanes="2" speed="50"/>
    <edge id="e3" from="n3" to="n4" numLanes="2" speed="50"/>
    <edge id="e4" from="n4" to="n1" numLanes="2" speed="50"/>
    <edge id="e5" from="n1" to="n3" numLanes="1" speed="40"/>
    <edge id="e6" from="n3" to="n2" numLanes="1" speed="40"/>
</edges>

