<connections>
    <connection from="e5" to="e6" fromLane="0" toLane="0"/>
</connections>
