<configuration>
    <input>
        <net-file value="network.net.xml"/>
        <route-files value="routes.rou.xml"/>
        <additional-files value="trafficLights.tll.xml"/>
    </input>
    <time>
        <begin value="0"/>
        <end value="100"/>
    </time>
</configuration>
